20
Lattice="7.125788582741 0.0 0.0 -0.0 10.019708833413 0.0 0.0 0.0 7.042128924126" Properties=species:S:1:pos:R:3 pbc="T T T"
Ba       0.31659449       7.51478163       0.06620352
Ba      -0.31659449       2.50492721      -0.06620352
Ba       3.87948879       7.51478163       3.45486095
Ba       3.24629980       2.50492721       3.58726798
Zr       3.56289429       0.00000000       0.00000000
Zr       3.56289429       5.00985442       0.00000000
Zr       0.00000000       0.00000000       3.52106446
Zr       0.00000000       5.00985442       3.52106446
S        5.07918638       0.32370646       5.02032836
S        5.07918638       4.68614796       5.02032836
S        2.04660220       9.69600238       2.02180056
S        2.04660220       5.33356087       2.02180056
S        5.60949649       9.69600238       1.49926390
S        5.60949649       5.33356087       1.49926390
S        1.51629209       0.32370646       5.54286502
S        1.51629209       4.68614796       5.54286502
S        3.51818295       7.51478163       6.60781653
S        3.60760563       2.50492721       0.43431240
S       -0.04471134       7.51478163       3.95537686
S        0.04471134       2.50492721       3.08675207
